#
# *******************
# Calendar Parameters
# *******************
 &CAL_NML
 TheCalendar='gregorian',
#calendarDumps=.TRUE.,
 calendarDumps=.FALSE.,
# TheCalendar='model',
 startDate_1=19920101
 startDate_2=120000,
 &
