# *******************
# ECCO cost functions
# *******************
 &ECCO_COST_NML
 &
# ***************************
# ECCO generic cost functions
# ***************************
 &ECCO_GENCOST_NML
 gencost_name(1) = 'testHeatContent',
 gencost_barfile(1) = 'm_boxmean_theta',
 gencost_avgperiod(1) = 'day',
 gencost_itracer(1) = 1,
 gencost_msk_is3d(1)=.FALSE.,
 gencost_outputlevel(1) = 1,
 gencost_mask(1) = 'ones2D',
 mult_gencost(1) = 1.0D9,
#
 &
# 
