# ***************
# Open boundaries
# ***************
 &KPP_PARM01
# KPPmixingMaps = .TRUE.,
# KPPwriteState = .TRUE.,
 &
