# Packages
 &PACKAGES
 useAUTODIFF = .TRUE.,
 useECCO = .TRUE.,
 useCTRL = .TRUE.,
 useGMRedi = .TRUE.,
 usePTRACERS = .TRUE.,
 useGCHEM = .TRUE.,
# useMNC = .TRUE.,
 useDiagnostics = .TRUE.,
 useKPP = .TRUE.,
 useCAL = .TRUE.,
 &
  
